# Example "data.mnc" file
# Lines beginning "#" are comments
 &MNC_01
# mnc_echo_gvtypes=.FALSE.,
# mnc_use_indir=.FALSE.,
 mnc_use_outdir=.TRUE.,
 mnc_outdir_str='mnc_test_',
 mnc_outdir_date=.TRUE.,
 monitor_mnc=.FALSE.,
 snapshot_mnc=.TRUE.,
 timeave_mnc=.TRUE.,
 pickup_read_mnc=.FALSE.,
 pickup_write_mnc=.FALSE.,
# mnc_filefreq = 31104000.,
# mnc_filefreq = -1.,
 mnc_filefreq = 2592000
 &
# Note: Some systems use & as the
# namelist terminator. Other systems
# use a / character.
