 &GCHEM_PARM01
 useGUD=.TRUE.,
 nsubtime=1,
# now set in data.gud
#gchem_ForcingPeriod=2592000.,
#gchem_ForcingCycle=31104000.,
 /
