# Packages
 &PACKAGES
 usePTRACERS=.TRUE.
 useGCHEM=.TRUE.,
 useKPP=.FALSE.,
 useMNC=.TRUE.,
 useEXF=.TRUE.,
 useCAL=.FALSE.,
 useDIAGNOSTICS=.TRUE,
 /
